12
	Energy:      16.2269668
C         -4.99247        2.93207       -0.00000
C         -4.20705        4.08474       -0.00000
C         -2.81609        3.98088       -0.00000
C         -4.38694        1.67554       -0.00000
C         -2.99598        1.57168        0.00000
C         -2.21056        2.72435        0.00000
H         -6.07618        3.01299       -0.00000
H         -4.67882        5.06373       -0.00000
H         -4.99887        0.77748       -0.00000
H         -2.52421        0.59270        0.00000
H         -1.12685        2.64343        0.00000
H         -2.20416        4.87895       -0.00000
